src/research/state_estimation/Bus5_GSO.EPC
title
!
comments
!
solution parameters
tap    1    tcul  enabled/disabled
phas   1    ps    enabled/disabled
area   1    area  enabled/disabled
svd    1    svd   enabled/disabled
dctap  1    dc    enabled/disabled
gcd    0    gcd   enabled/disabled
jump  0.000200    jumper threshold
toler   0.1000    newton tolerance
sbase 100.0000    system mva base
!
bus data  [5]               ty  vsched   volt     angle    ar zone  vmax   vmin   date_in date_out pid L own st  latitude  longitude island    sdmon   vmax1      vmin1      dvmax subst
      1 "One         "  15.0000 " "  0  :  0 1.000000 1.000000  0.000001    1    1 1.1000 0.9000   400101   391231   0 0   1 0   0.000000   0.000000     0 0    1.10000    0.90000    0.00000 -1 " "     1 -1 " " 
      2 "Two         " 345.0000 " "  0  :  1 1.000000  1.000000  0.000001    1    1 1.1000 0.9000   400101   391231   0 0   1 0   0.000000   0.000000     0 0    1.10000    0.90000    0.00000 -1 " "     1 -1 " " 
      3 "Three       "  15.0000 " "  0  :  2 1.050000 1.050000  0.000001    1    1 1.1000 0.9000   400101   391231   0 0   1 0   0.000000   0.000000     0 0    1.10000    0.90000    0.00000 -1 " "     1 -1 " " 
      4 "Four        " 345.0000 " "  0  :  1 1.000000  1.000000  0.000001    1    1 1.1000 0.9000   400101   391231   0 0   1 0   0.000000   0.000000     0 0    1.10000    0.90000    0.00000 -1 " "     1 -1 " " 
      5 "Five        " 345.0000 " "  0  :  1 1.000000  1.000000  0.000001    1    1 1.1000 0.9000   400101   391231   0 0   1 0   0.000000   0.000000     0 0    1.10000    0.90000    0.00000 -1 " "     1 -1 " " 
branch data  [    3]                                          ck  se  ------------long_id_------------    st resist   react   charge   rate1  rate2  rate3  rate4 aloss  lngth 
      4 "Four        " 345.00       2 "Two         " 345.00  "1 "   1 " "  :  1  0.009000  0.100000  1.720000 1200.0 1200.0 1200.0    0.0 0.000    0.0 /
   1    1  0.000000  0.000000  1.000000   400101   391231   0 1  0    0.0    0.0    0.0    0.0   1 1.000   0 0.000   0 0.000   0 0.000   0 0.000   0 0.000   0 0.000   0 0.000  0 0  0  0  0  90.000 
      5 "Five        " 345.00       2 "Two         " 345.00  "1 "   1 " "  :  1  0.004500  0.050000  0.880000 1200.0 1200.0 1200.0    0.0 0.000    0.0 /
   1    1  0.000000  0.000000  1.000000   400101   391231   0 1  0    0.0    0.0    0.0    0.0   1 1.000   0 0.000   0 0.000   0 0.000   0 0.000   0 0.000   0 0.000   0 0.000  0 0  0  0  0  90.000 
      5 "Five        " 345.00       4 "Four        " 345.00  "1 "   1 " "  :  1  0.002250  0.025000  0.440000 1200.0 1200.0 1200.0    0.0 0.000    0.0 /
   1    1  0.000000  0.000000  1.000000   400101   391231   0 1  0    0.0    0.0    0.0    0.0   1 1.000   0 0.000   0 0.000   0 0.000   0 0.000   0 0.000   0 0.000   0 0.000  0 0  0  0  0  90.000 
transformer data  [   2]                                     ck   ------------long_id_------------     st ty --no---    reg_name          zt         int                              tert                   ar zone  tbase   ps_r    ps_x    pt_r    pt_x    ts_r    ts_x
      1 "One         "  15.00       5 "Five        " 345.00  "1 "   " " :   1  1       1 "One         "  15.00  0       0 "            "   0.00       0 "            "   0.00    1    1 100.000000 1.500000E-03 2.000000E-02 0.000000E+00 0.000000E+00 0.000000E+00 0.000000E+00 /
 15.000000 345.000000  0.000000  0.000000 0.000000E+00 0.000000E+00  600.0  600.0  600.0    0.0 0.000  1.100000  0.900000  1.000000  0.990000  0.006250  1.000000  1.000000  1.000000  1.000000   400101   391231   0 1     0.0    0.0    0.0    0.0 /
   1 1.000   0 0.000   0 0.000   0 0.000   0 0.000   0 0.000   0 0.000   0 0.000  0 /
   0.000000   0.000000  0.000000  0.000000     0.0    0.0    0.0     0.0    0.0    0.0 0.000 0.000  1  1  1 0.0000 0.0000 0  0  0 0.000000 
      3 "Three       "  15.00       4 "Four        " 345.00  "1 "   " " :   1  1       3 "Three       "  15.00  0       0 "            "   0.00       0 "            "   0.00    1    1 100.000000 7.500000E-04 1.000000E-02 0.000000E+00 0.000000E+00 0.000000E+00 0.000000E+00 /
 15.000000 345.000000  0.000000  0.000000 0.000000E+00 0.000000E+00 1000.0 1000.0 1000.0    0.0 0.000  1.100000  0.900000  1.000000  0.990000  0.006250  1.000000  1.000000  1.000000  1.000000   400101   391231   0 1     0.0    0.0    0.0    0.0 /
   1 1.000   0 0.000   0 0.000   0 0.000   0 0.000   0 0.000   0 0.000   0 0.000  0 /
   0.000000   0.000000  0.000000  0.000000     0.0    0.0    0.0     0.0    0.0    0.0 0.000 0.000  1  1  1 0.0000 0.0000 0  0  0 0.000000 
generator data  [   2]         id   ------------long_id_------------    st ---no--     reg_name           prf  qrf  ar zone   pgen   pmax   pmin   qgen   qmax   qmin   mbase  cmp_r cmp_x gen_r gen_x           hbus                         tbus                date_in date_out pid N
      1 "One         "  15.00 "1 "  " " :  1       1 "One         "  15.00  1.000000  1.000000   1    1 394.838786 1000.000000   0.000000  0.000000 9900.000000 -9900.000000 100.0000 0.000 0.000 0.000 1.000      -1 "            "   0.00      -1 "            "   0.00    400101   391231   0 0 /
 0.0000 0.0000 1.0000    1 1.000   0 0.000   0 0.000   0 0.000   0 0.000   0 0.000   0 0.000   0 0.000   0   0   0   0   0   0   0    0.0 0 0  1.000000    1  " "  0  0   0   0   0   0   0.000000   0   0  0.000000   0  0.000000 
      3 "Three       "  15.00 "1 "  " " :  1       3 "Three       "  15.00  1.000000  1.000000   1    1 519.999981 1000.000000   0.000000 562.062883 400.000000 -279.999995 100.0000 0.000 0.000 0.000 1.000      -1 "            "   0.00      -1 "            "   0.00    400101   391231   0 0 /
 0.0000 0.0000 1.0000    1 1.000   0 0.000   0 0.000   0 0.000   0 0.000   0 0.000   0 0.000   0 0.000   0   0   0   0   0   0   0    0.0 0 0  1.000000    1  " "  0  0   0   0   0   0   0.000000   0   0  0.000000   0  0.000000 
load data  [   2]             id   ------------long_id_------------     st      mw      mvar    mw_i    mvar_i  mw_z      mvar_z  ar zone  date_in date_out pid N own M nonc  thr_bus flg
      2 "Two         " 345.00 "1 "   " "  :  1 800.000000 279.999995 0.000000 0.000000 0.000000 0.000000   1    1   400101   391231   0 0   1 0    0       0 "            "   0.00   0 ""    1  0      0 "            "   0.00 "  " 0.000000 0.000000 1 0 0.000000 0.000000 0 0
      3 "Three       "  15.00 "1 "   " "  :  1 80.000001 40.000001 0.000000 0.000000 0.000000 0.000000   1    1   400101   391231   0 0   1 0    0       0 "            "   0.00   0 ""    1  0      0 "            "   0.00 "  " 0.000000 0.000000 1 0 0.000000 0.000000 0 0
shunt data  [   0]             id                                 ck  se  ------------long_id_------------     st ar  zone    pu_mw  pu_mvar  date_in date_out pid N own part1 own part2 own part3 own part4 --num-- ----name----  --kv-- M --num--  ----name----  --kv--  ID  st
svd data  [   1]               id   ------------long_id_------------    st ty --no---     reg_name           ar zone      g      b  min_c  max_c  vband   bmin   bmax  date_in date_out pid N own part1 own part2 own part3 own part4 M st
      2 "Two         " 345.00 "1 "  " " :  0  0       2 "Two         " 345.00   1    1  0.000000  2.000000  0.000000  0.000000  0.000000  0.000000  2.000000   400101   391231   0 1    1 1.000   0 0.000   0 0.000   0 0.000/
         1  2.000000  0  0.000000  0  0.000000  0  0.000000  0  0.000000  0  0.000000  0  0.000000  0  0.000000  0  0.000000  0  0.000000  0    1  0  0
area data  [  1]                            swing  desired    tol      pnet     qnet
    1 "1                               "       0    0.000    1.000   34.839  242.063 0  0  0  " "
zone data  [   1]                            pnet     qnet
    1 "1                               "   34.839  242.063 0
interface data  [   0]                      pnet     qnet   -rate1- -rate2- -rate3- -rate4- -rate5- -rate6- -rate7- -rate8-
interface branch data  [    0]                              ck      -i_no-  part_fac  
dc bus data  [ 0]             ty ar  zone   vsched     dc_volt  date_in date_out pid own
dc converter data  [ 0]                               id   long_id_    st ty md nb fg  --no---           reg   ar zone  date_in date_out
z table data  [ 0]  -tap2 fact2 -tap3 fact3 -tap4 fact4 -tap5 fact5 -tap6 fact6 -tap7 fact7 -tap8 fact8 -tap9 fact9 tap10 fac10 tap11 fac11
gcd data  [   0]
transaction data  [    0]              st    sch_mw   sch_mvar  flag stn pid         transaction name
owner data  [    1]    owner name           s name       net_mw   net_mvar     sch_mw   sch_mvar  ar
       1 "1                               " "    " :     0.000      0.000      0.000      0.000   0 0 


qtable data     [   0]   id     p[0]   qmx[0]  qmn[0]  ....
ba data  [  1]                            swing  desired    tol      pnet     qnet
    1 "1                               "       0   34.839    1.000   34.839  242.063 0  0  0  " "
end
